Input Parameters:
   integrator                     = md
   tinit                          = 0
   dt                             = 0.02
   nsteps                         = 50000
   init-step                      = 0
   simulation-part                = 1
   mts                            = false
   comm-mode                      = Linear
   nstcomm                        = 100
   bd-fric                        = 0
   ld-seed                        = -573869057
   emtol                          = 10
   emstep                         = 0.01
   niter                          = 20
   fcstep                         = 0
   nstcgsteep                     = 1000
   nbfgscorr                      = 10
   rtpi                           = 0.05
   nstxout                        = 0
   nstvout                        = 0
   nstfout                        = 0
   nstlog                         = 1000
   nstcalcenergy                  = 100
   nstenergy                      = 1000
   nstxout-compressed             = 1000
   compressed-x-precision         = 100
   cutoff-scheme                  = Verlet
   nstlist                        = 20
   pbc                            = xyz
   periodic-molecules             = false
   verlet-buffer-tolerance        = -1
   rlist                          = 1.35
   coulombtype                    = Reaction-Field
   coulomb-modifier               = Potential-shift
   rcoulomb-switch                = 0
   rcoulomb                       = 1.1
   epsilon-r                      = 15
   epsilon-rf                     = inf
   vdw-type                       = Cut-off
   vdw-modifier                   = Potential-shift
   rvdw-switch                    = 0
   rvdw                           = 1.1
   DispCorr                       = No
   table-extension                = 1
   fourierspacing                 = 0.12
   fourier-nx                     = 0
   fourier-ny                     = 0
   fourier-nz                     = 0
   pme-order                      = 4
   ewald-rtol                     = 1e-05
   ewald-rtol-lj                  = 0.001
   lj-pme-comb-rule               = Geometric
   ewald-geometry                 = 0
   epsilon-surface                = 0
   tcoupl                         = V-rescale
   nsttcouple                     = 10
   nh-chain-length                = 0
   print-nose-hoover-chain-variables = false
   pcoupl                         = Parrinello-Rahman
   pcoupltype                     = Semiisotropic
   nstpcouple                     = 10
   tau-p                          = 12
   compressibility (3x3):
      compressibility[    0]={ 3.00000e-04,  0.00000e+00,  0.00000e+00}
      compressibility[    1]={ 0.00000e+00,  3.00000e-04,  0.00000e+00}
      compressibility[    2]={ 0.00000e+00,  0.00000e+00,  3.00000e-04}
   ref-p (3x3):
      ref-p[    0]={ 1.00000e+00,  0.00000e+00,  0.00000e+00}
      ref-p[    1]={ 0.00000e+00,  1.00000e+00,  0.00000e+00}
      ref-p[    2]={ 0.00000e+00,  0.00000e+00,  1.00000e+00}
   refcoord-scaling               = COM
   posres-com (3):
      posres-com[0]= 0.00000e+00
      posres-com[1]= 0.00000e+00
      posres-com[2]= 0.00000e+00
   posres-comB (3):
      posres-comB[0]= 0.00000e+00
      posres-comB[1]= 0.00000e+00
      posres-comB[2]= 0.00000e+00
   QMMM                           = false
qm-opts:
   ngQM                           = 0
   constraint-algorithm           = Lincs
   continuation                   = true
   Shake-SOR                      = false
   shake-tol                      = 0.0001
   lincs-order                    = 4
   lincs-iter                     = 1
   lincs-warnangle                = 90
   nwall                          = 0
   wall-type                      = 9-3
   wall-r-linpot                  = -1
   wall-atomtype[0]               = -1
   wall-atomtype[1]               = -1
   wall-density[0]                = 0
   wall-density[1]                = 0
   wall-ewald-zfac                = 3
   pull                           = false
   awh                            = false
   rotation                       = false
   interactiveMD                  = false
   disre                          = No
   disre-weighting                = Conservative
   disre-mixed                    = false
   dr-fc                          = 1000
   dr-tau                         = 0
   nstdisreout                    = 100
   orire-fc                       = 0
   orire-tau                      = 0
   nstorireout                    = 100
   free-energy                    = no
   cos-acceleration               = 0
   deform (3x3):
      deform[    0]={ 0.00000e+00,  0.00000e+00,  0.00000e+00}
      deform[    1]={ 0.00000e+00,  0.00000e+00,  0.00000e+00}
      deform[    2]={ 0.00000e+00,  0.00000e+00,  0.00000e+00}
   simulated-tempering            = false
   swapcoords                     = no
   userint1                       = 0
   userint2                       = 0
   userint3                       = 0
   userint4                       = 0
   userreal1                      = 0
   userreal2                      = 0
   userreal3                      = 0
   userreal4                      = 0
   applied-forces:
     electric-field:
       x:
         E0                       = 0
         omega                    = 0
         t0                       = 0
         sigma                    = 0
       y:
         E0                       = 0
         omega                    = 0
         t0                       = 0
         sigma                    = 0
       z:
         E0                       = 0
         omega                    = 0
         t0                       = 0
         sigma                    = 0
     density-guided-simulation:
       active                     = false
       group                      = protein
       similarity-measure         = inner-product
       atom-spreading-weight      = unity
       force-constant             = 1e+09
       gaussian-transform-spreading-width = 0.2
       gaussian-transform-spreading-range-in-multiples-of-width = 4
       reference-density-filename = reference.mrc
       nst                        = 1
       normalize-densities        = true
       adaptive-force-scaling     = false
       adaptive-force-scaling-time-constant = 4
       shift-vector               =
       transformation-matrix      =
grpopts:
   nrdf:     2350.68        7271     12118.3
   ref-t:         300         300         300
   tau-t:           1           1           1
annealing:          No          No          No
annealing-npoints:           0           0           0
   acc:	           0           0           0
   nfreeze:           N           N           N
   energygrp-flags[  0]: 0

Can not increase nstlist because verlet-buffer-tolerance is not set or used
1 GPU selected for this run.
Mapping of GPU IDs to the 1 GPU task in the 1 rank on this node:
  PP:0
PP tasks will do (non-perturbed) short-ranged interactions on the GPU
PP task will update and constrain coordinates on the CPU
Using 1 MPI thread
Using 10 OpenMP threads

Pinning threads with an auto-selected logical core stride of 2
System total charge: 0.000
Reaction-Field:
epsRF = 0, rc = 1.1, krf = 0.375657, crf = 1.36364, epsfac = 9.26236
The electrostatics potential has its minimum at r = 1.1
Potential shift: LJ r^-12: -3.186e-01 r^-6: -5.645e-01
Generated table with 1175 data points for 1-4 COUL.
Tabscale = 500 points/nm
Generated table with 1175 data points for 1-4 LJ6.
Tabscale = 500 points/nm
Generated table with 1175 data points for 1-4 LJ12.
Tabscale = 500 points/nm

Using GPU 8x8 nonbonded short-range kernels

Using a 8x8 pair-list setup:
  updated every 20 steps, buffer 0.250 nm, rlist 1.350 nm

Using full Lennard-Jones parameter combination matrix

Initializing LINear Constraint Solver

The number of constraints is 826
226 constraints are involved in constraint triangles,
will apply an additional matrix expansion of order 4 for couplings
between constraints inside triangles

There are: 7523 Atoms
There are: 605 VSites
Center of mass motion removal mode is Linear
We have the following groups for center of mass motion removal:
  0:  System

PLUMED: PLUMED is starting
PLUMED: Version: 2.9.3 (git: Unknown) compiled on Apr 29 2025 at 17:05:07
PLUMED: Please cite these papers when using PLUMED [1][2]
PLUMED: For further information see the PLUMED web page at http://www.plumed.org
PLUMED: Root: /usr/local/lib/plumed
PLUMED: For installed feature, see /usr/local/lib/plumed/src/config/config.txt
PLUMED: Molecular dynamics engine: gromacs
PLUMED: Precision of reals: 4
PLUMED: Running over 1 node
PLUMED: Number of threads: 10
PLUMED: Cache line size: 512
PLUMED: Number of atoms: 8128
PLUMED: File suffix:
PLUMED: FILE: plumed.dat
PLUMED: Action PCAVARS
PLUMED:   with label pc
PLUMED:   found 2 eigenvectors in file plumed_cg.pdb
PLUMED:   found 186 atoms in input
PLUMED:   with indices :
PLUMED: 58 63 68 73 78 83 88 93 98 105 110 115 119 124 129 133 138 143 148 153 158 163 168 173 178
PLUMED: 224 229 234 239 244 252 257 262 267 272 277 284 289 294 299 304 309 316 321 326 331 336 341 346 351
PLUMED: 356 364 444 449 455 460 467 472 479 484 489 494 499 504 509 517 522 527 532 537 542 547 552 557 562
PLUMED: 567 572 577 585 593 600 605 610 615 671 677 681 689 694 700 705 710 715 722 727 732 741 746 751 756
PLUMED: 763 768 773 778 782 787 792 960 965 970 975 980 985 994 999 1004 1009 1014 1021 1028 1035 1040 1045 1050 1057
PLUMED: 1062 1067 1072 1077 1082 1090 1095 1100 1105 1109 1117 1123 1242 1248 1253 1258 1263 1269 1274 1279 1284 1289 1294 1299 1306
PLUMED: 1311 1318 1323 1328 1333 1342 1347 1352 1359 1366 1371 1375 1383 1391 1493 1498 1503 1508 1513 1518 1525 1530 1535 1542 1550
PLUMED: 1555 1560 1565 1570 1575 1580 1585 1590 1595 1603 1608
PLUMED:   using periodic boundary conditions
PLUMED:   added component to this action:  pc.eig-1
PLUMED:   added component to this action:  pc.eig-2
PLUMED:   added component to this action:  pc.residual
PLUMED: Action METAD
PLUMED:   with label metad
PLUMED:   with arguments pc.eig-1
PLUMED:   added component to this action:  metad.bias
PLUMED:   Gaussian width  0.000100  Gaussian height 1.000000
PLUMED:   Gaussian deposition pace 50
PLUMED:   Gaussian file HILLS
PLUMED:   Well-Tempered Bias Factor 10.000000
PLUMED:   Hills relaxation time (tau) 22.449049
PLUMED:   KbT 2.494339
PLUMED:   Bibliography [3][4]
PLUMED: Action PRINT
PLUMED:   with label @2
PLUMED:   with stride 1000
PLUMED:   with arguments pc.eig-1
PLUMED:   on file COLVAR
PLUMED:   with format  %f
PLUMED: END FILE: plumed.dat
PLUMED: Timestep: 0.020000
PLUMED: KbT: 2.494339
PLUMED: Relevant bibliography:
PLUMED:   [1] The PLUMED consortium, Nat. Methods 16, 670 (2019)
PLUMED:   [2] Tribello, Bonomi, Branduardi, Camilloni, and Bussi, Comput. Phys. Commun. 185, 604 (2014)
PLUMED:   [3] Laio and Parrinello, PNAS 99, 12562 (2002)
PLUMED:   [4] Barducci, Bussi, and Parrinello, Phys. Rev. Lett. 100, 020603 (2008)
PLUMED: Please read and cite where appropriate!
PLUMED: Finished setup
Started mdrun on rank 0 Sun Oct 12 15:59:23 2025

           Step           Time
              0        0.00000

   Energies (kJ/mol)
           Bond          Angle       G96AngleRestricted Angles    Proper Dih.
    3.91345e+03    2.27061e+02    1.55031e+03    8.74761e+02    5.28734e+03
    4.59993e+02   -3.95914e+03   -2.34761e+02   -1.59792e+05   -1.84048e+03
      Potential    Kinetic En.   Total Energy  Conserved En.    Temperature
   -1.53514e+05    2.71731e+04   -1.26340e+05   -1.26294e+05    3.00660e+02
    1.47594e+01    2.52633e-05

	<====  A V E R A G E S  ====>

	Statistics over 50001 steps using 501 frames

   Energies (kJ/mol)
           Bond          Angle       G96AngleRestricted Angles    Proper Dih.
    3.79915e+03    2.19774e+02    1.58074e+03    8.66926e+02    5.30024e+03
  Improper Dih.          LJ-14     Coulomb-14        LJ (SR)   Coulomb (SR)
    3.91589e+02   -3.94611e+03   -2.35131e+02   -1.59938e+05   -1.89570e+03
      Potential    Kinetic En.   Total Energy  Conserved En.    Temperature
   -1.53857e+05    2.70895e+04   -1.26767e+05   -1.26938e+05    2.99735e+02
 Pressure (bar)   Constr. rmsd
    1.13469e+00    0.00000e+00

          Box-X          Box-Y          Box-Z
    8.32596e+00    8.78892e+00    1.04858e+01

   Total Virial (kJ/mol)
    9.15321e+03    2.89887e+00   -4.14567e+01
    2.89941e+00    8.99788e+03    1.70009e+01
   -4.14574e+01    1.70050e+01    8.86880e+03

   Pressure (bar)
   -3.87019e+00    2.38840e-01    1.49716e+00
    2.38817e-01    2.53121e+00   -6.85232e-01
    1.49719e+00   -6.85411e-01    4.74307e+00

      T-Protein         T-POPC        T-W_ION
    3.00069e+02    2.99522e+02    2.99797e+02
